<nodes>
    <node id="gneJ8" x="0" y="0" type="priority"/>
    <node id="gneJ9" x="1000" y="0" type="priority"/>
</nodes>
