<?xml version="1.0" encoding="UTF-8"?>

<routes>
    <vType id="car"
       vClass="passenger"
       accel="5"
       decel="8"
       sigma="0"
       tau="0.1"
       length="5.0"
       minGap="0.5"
       maxSpeed="19.89"/>
	       <route id="route_forward" color="1,1,0" edges="gneE5"/>
    <route id="route_backward" color="0,1,1" edges="-gneE5"/>
    <flow id="forward_lane0" type="car" route="route_forward"
          begin="0" end="1000" period="1"
          departLane="0" departSpeed="max" departPos="free"/>

    <flow id="forward_lane1" type="car" route="route_forward"
          begin="0" end="1000" period="1"
          departLane="1" departSpeed="max" departPos="free"/>

    <flow id="backward_lane0" type="car" route="route_backward"
          begin="0" end="1000" period="1"
          departLane="0" departSpeed="max" departPos="free"/>

    <flow id="backward_lane1" type="car" route="route_backward"
          begin="0" end="1000" period="1"
          departLane="1" departSpeed="max" departPos="free"/>
</routes>
