<?xml version="1.0" encoding="UTF-8"?>

<!-- generated on 2026년 05월 08일 (금) 오후 02시 33분 37초 by Eclipse SUMO netedit Version 1.4.0
<configuration xmlns:xsi="http://www.w3.org/2001/XMLSchema-instance" xsi:noNamespaceSchemaLocation="http://sumo.dlr.de/xsd/netconvertConfiguration.xsd">

    <input>
        <sumo-net-file value="/home/separk/Desktop/bin/simulte-1.4.1/simulations/Mode4Validation/highway/term/highway.net.xml"/>
    </input>

    <output>
        <output-file value="/home/separk/Desktop/bin/simulte-1.4.1/simulations/Mode4Validation/highway/term/highway.net.xml"/>
    </output>

    <processing>
        <geometry.min-radius.fix.railways value="false"/>
        <geometry.max-grade.fix value="false"/>
        <offset.disable-normalization value="true"/>
        <lefthand value="false"/>
    </processing>

    <junctions>
        <no-internal-links value="true"/>
        <no-turnarounds value="true"/>
        <junctions.corner-detail value="5"/>
        <junctions.limit-turn-speed value="5.5"/>
        <rectangular-lane-cut value="false"/>
    </junctions>

    <pedestrian>
        <walkingareas value="false"/>
    </pedestrian>

    <report>
        <aggregate-warnings value="5"/>
    </report>

</configuration>
-->

<net version="1.3" junctionCornerDetail="5" limitTurnSpeed="5.50" xmlns:xsi="http://www.w3.org/2001/XMLSchema-instance" xsi:noNamespaceSchemaLocation="http://sumo.dlr.de/xsd/net_file.xsd">

    <location netOffset="0.00,0.00" convBoundary="0.00,0.00,5000.00,0.00" origBoundary="-10000000000.00,-10000000000.00,10000000000.00,10000000000.00" projParameter="!"/>

    <edge id="-gneE5" from="gneJ9" to="gneJ8" priority="-1">
        <lane id="-gneE5_0" index="0" speed="19.89" length="5000.00" shape="5000.00,4.80 0.00,4.80"/>
        <lane id="-gneE5_1" index="1" speed="19.89" length="5000.00" shape="5000.00,1.60 0.00,1.60"/>
    </edge>
    <edge id="gneE5" from="gneJ8" to="gneJ9" priority="-1" length="5000.00">
        <lane id="gneE5_0" index="0" speed="19.89" length="5000.00" shape="0.00,-4.80 5000.00,-4.80"/>
        <lane id="gneE5_1" index="1" speed="19.89" length="5000.00" shape="0.00,-1.60 5000.00,-1.60"/>
    </edge>

    <junction id="gneJ8" type="dead_end" x="0.00" y="0.00" incLanes="-gneE5_0 -gneE5_1" intLanes="" shape="0.00,0.00 0.00,6.40 0.00,0.00"/>
    <junction id="gneJ9" type="dead_end" x="5000.00" y="0.00" incLanes="gneE5_0 gneE5_1" intLanes="" shape="5000.00,0.00 5000.00,-6.40 5000.00,0.00"/>

</net>
