<?xml version="1.0" encoding="UTF-8"?>

<!-- generated on Mon May 18 10:56:02 2026 by Eclipse SUMO netconvert Version 1.4.0
<configuration xmlns:xsi="http://www.w3.org/2001/XMLSchema-instance" xsi:noNamespaceSchemaLocation="http://sumo.dlr.de/xsd/netconvertConfiguration.xsd">

    <input>
        <node-files value="highway.nod.xml"/>
        <edge-files value="highway.edge.xml"/>
    </input>

    <output>
        <output-file value="highway.net.xml"/>
    </output>

    <junctions>
        <no-turnarounds value="false"/>
    </junctions>

    <report>
        <aggregate-warnings value="5"/>
    </report>

</configuration>
-->

<net version="1.3" junctionCornerDetail="5" limitTurnSpeed="5.50" xmlns:xsi="http://www.w3.org/2001/XMLSchema-instance" xsi:noNamespaceSchemaLocation="http://sumo.dlr.de/xsd/net_file.xsd">

    <location netOffset="0.00,0.00" convBoundary="0.00,0.00,1000.00,0.00" origBoundary="0.00,0.00,1000.00,0.00" projParameter="!"/>

    <edge id=":gneJ8_0" function="internal">
        <lane id=":gneJ8_0_0" index="0" speed="3.65" length="4.67" shape="0.00,1.60 -1.20,0.80 -1.60,0.00 -1.20,-0.80 0.00,-1.60"/>
    </edge>
    <edge id=":gneJ9_0" function="internal">
        <lane id=":gneJ9_0_0" index="0" speed="3.65" length="4.67" shape="1000.00,-1.60 1001.20,-0.80 1001.60,0.00 1001.20,0.80 1000.00,1.60"/>
    </edge>

    <edge id="-gneE5" from="gneJ9" to="gneJ8" priority="-1">
        <lane id="-gneE5_0" index="0" speed="19.89" length="1000.00" shape="1000.00,4.80 0.00,4.80"/>
        <lane id="-gneE5_1" index="1" speed="19.89" length="1000.00" shape="1000.00,1.60 0.00,1.60"/>
    </edge>
    <edge id="gneE5" from="gneJ8" to="gneJ9" priority="-1">
        <lane id="gneE5_0" index="0" speed="19.89" length="1000.00" shape="0.00,-4.80 1000.00,-4.80"/>
        <lane id="gneE5_1" index="1" speed="19.89" length="1000.00" shape="0.00,-1.60 1000.00,-1.60"/>
    </edge>

    <junction id="gneJ8" type="priority" x="0.00" y="0.00" incLanes="-gneE5_0 -gneE5_1" intLanes=":gneJ8_0_0" shape="0.00,0.00 0.00,6.40 0.00,0.00">
        <request index="0" response="0" foes="0" cont="0"/>
    </junction>
    <junction id="gneJ9" type="priority" x="1000.00" y="0.00" incLanes="gneE5_0 gneE5_1" intLanes=":gneJ9_0_0" shape="1000.00,0.00 1000.00,-6.40 1000.00,0.00">
        <request index="0" response="0" foes="0" cont="0"/>
    </junction>

    <connection from="-gneE5" to="gneE5" fromLane="1" toLane="1" via=":gneJ8_0_0" dir="t" state="M"/>
    <connection from="gneE5" to="-gneE5" fromLane="1" toLane="1" via=":gneJ9_0_0" dir="t" state="M"/>

    <connection from=":gneJ8_0" to="gneE5" fromLane="0" toLane="1" dir="t" state="M"/>
    <connection from=":gneJ9_0" to="-gneE5" fromLane="0" toLane="1" dir="t" state="M"/>

</net>
